OPT_V10/Two_days_MCY3_MIQCPM1/powerflow_results_t11.txt
Pandapower Network Debug Info
==================================================

BUS:
       vm_pu  va_degree      p_mw    q_mvar
0   0.998813   0.362781 -0.001931  0.001115
1   0.998010   0.601854 -0.001820  0.001662
2   0.996328   0.807697 -0.000767  0.003351
3   0.997426   0.509614 -0.000569  0.003380
4   0.999916   0.001548  0.006615  0.008440
5   0.999905   0.001627  0.007476  0.008154
6   0.999895   0.001675  0.011006  0.010264
7   0.999952   0.001225  0.000000  0.000000
8   0.999952   0.001231  0.000000  0.000000
9   1.000000   0.000000 -0.020126 -0.041441
10  1.000000   0.000006  0.000000  0.000000
--------------------------------------------------

LINE:
   p_from_mw  q_from_mvar   p_to_mw  q_to_mvar         pl_mw       ql_mvar  i_from_ka   i_to_ka      i_ka  vm_from_pu  va_from_degree  vm_to_pu  va_to_degree  loading_percent
0   0.020116     0.037441 -0.020115  -0.037440  1.767018e-06  1.377773e-06   0.001636  0.001636  0.001636    1.000000        0.000006  0.999952      0.001225         0.711282
1   0.025099     0.026859 -0.025098  -0.026858  1.045083e-06  8.148682e-07   0.001415  0.001415  0.001415    0.999952        0.001225  0.999916      0.001548         0.615215
2  -0.004994     0.009581  0.005049  -0.009538  5.460343e-05  4.257519e-05   0.015595  0.015595  0.015595    0.999952        0.001231  0.998813      0.362781         6.780602
3  -0.018482    -0.018418  0.018483   0.018418  2.354882e-07  1.836140e-07   0.001004  0.001004  0.001004    0.999905        0.001627  0.999916      0.001548         0.436695
4  -0.011006    -0.010264  0.011007   0.010264  1.107888e-07  8.638387e-08   0.000579  0.000579  0.000579    0.999895        0.001675  0.999905      0.001627         0.251875
5   0.002576    -0.005022 -0.002557   0.005037  1.892133e-05  1.475327e-05   0.008163  0.008163  0.008163    0.998010        0.601854  0.998813      0.362781         3.548985
6   0.000569    -0.003380 -0.000561   0.003387  7.886152e-06  6.148963e-06   0.004961  0.004961  0.004961    0.997426        0.509614  0.998813      0.362781         2.156743
7   0.000767    -0.003351 -0.000756   0.003359  1.076927e-05  8.396974e-06   0.004980  0.004980  0.004980    0.996328        0.807697  0.998010      0.601854         2.165299
--------------------------------------------------

TRAFO:
    p_hv_mw  q_hv_mvar   p_lv_mw  q_lv_mvar    pl_mw  ql_mvar  i_hv_ka   i_lv_ka  vm_hv_pu  va_hv_degree  vm_lv_pu  va_lv_degree  loading_percent
0 -0.004984   0.010581  0.004994  -0.009581  0.00001    0.001  0.00045  0.015595  0.999952      0.001225  0.999952      0.001231         0.116963
1  0.020126   0.041441 -0.020116  -0.037441  0.00001    0.004  0.00038  0.001636  1.000000      0.000000  1.000000      0.000006         0.115175
--------------------------------------------------
